%chk=C:\Users\Antonio\Desktop\QM_calculations\Outputs\peptide_calculations\1ycr.chk
#p b3lyp geom=connectivity def2svp

aa

0 1
 C                 11.20312856    2.55570272    2.01448331
 C                 11.17815902    1.61374770    0.81474808
 O                 11.62293556    1.97190299   -0.27175264
 N                 10.72113329    0.38997622    1.02008946
 C                 10.67964849   -0.54958692   -0.07990346
 C                  9.31730214   -0.51521961   -0.77621492
 O                  8.33970173    0.01005448   -0.22193358
 N                  9.26257632   -1.07380652   -1.98784482
 C                  8.03965913   -1.08659026   -2.76873939
 C                  6.88973591   -1.66485989   -1.98382778
 O                  5.85504410   -1.02480149   -1.84507160
 N                  7.08759343   -2.87351638   -1.46433270
 C                  6.06890939   -3.57307799   -0.69822392
 C                  5.51030100   -2.78565750    0.47532072
 O                  4.32170421   -2.86637838    0.75152350
 N                  6.35821938   -2.02317008    1.15625365
 C                  5.91541851   -1.19949128    2.26340584
 C                  5.03094745   -0.09934903    1.70659414
 O                  3.94559426    0.16223347    2.22206701
 N                  5.50604858    0.54367937    0.64412971
 C                  4.79502352    1.64592602    0.02869165
 C                  3.44903421    1.24690776   -0.55966413
 O                  2.44464883    1.94628490   -0.36642117
 N                  3.43179099    0.11545863   -1.25622411
 C                  2.24101750   -0.38629407   -1.94620021
 C                  1.11359739   -0.85005307   -1.02609270
 O                 -0.05704281   -0.83042654   -1.39020470
 N                  1.45507068   -1.27373972    0.17109186
 C                  0.42837177   -1.72143522    1.08440199
 C                 -0.34108171   -0.56266677    1.71517403
 O                 -1.39130556   -0.77151851    2.31692316
 N                  0.13790837    0.65924141    1.52018135
 C                 -0.53726066    1.83191848    2.06398790
 C                 -1.58357967    2.40808687    1.12138520
 O                 -1.95696198    3.56978710    1.23943793
 N                 -2.02454663    1.62050392    0.15585814
 C                 -3.01834605    2.08294339   -0.80572948
 C                 -4.39623121    1.67748143   -0.31176955
 O                 -4.53731236    0.60231388    0.28834383
 N                 -5.43658042    2.49646120   -0.62035012
 C                 -6.82963524    2.25547339   -0.22479312
 C                 -7.23875937    0.86675188   -0.69117638
 O                 -7.24576970    0.58176833   -1.89103989
 C                 -7.58029428    3.34839727   -0.96950701
 C                 -6.57831324    4.44729622   -1.03234358
 C                 -5.35659861    3.71066354   -1.44976069
 N                 -7.55505554    0.00909586    0.27630394
 C                 -7.91609026   -1.38751325    0.03381844
 C                 -9.35341494   -1.71646507   -0.34149849
 O                 -9.71073484   -2.88445233   -0.49253316
 N                -10.16387710   -0.69121464   -0.52136467
 C                -11.55625346   -0.86106771   -0.90787255
 C                -12.47923580   -0.95997824    0.32043591
 C                -12.60711349   -2.39371598    0.86420123
 O                -12.49118139   -3.38689452    0.12507853
 N                -12.87869826   -2.49909080    2.16057968
 H                 10.90664119    2.08593598    2.96481616
 H                 11.47655196   -0.27627245   -0.78726432
 H                 10.21325791    0.16522846    1.86600371
 H                  7.73797550   -0.06897503   -3.06028096
 H                 10.13299781   -1.32977754   -2.44144492
 H                  5.20063705   -3.82161981   -1.32744022
 H                  7.97285908   -3.33550323   -1.63673550
 H                  5.31098813   -1.78139998    2.97087229
 H                  7.29483353   -1.88046669    0.79782242
 H                  4.57713622    2.43854695    0.75971681
 H                  6.40916555    0.29315914    0.25246927
 H                  1.80039827    0.39270499   -2.58627165
 H                  4.29771675   -0.40110957   -1.37642334
 H                 -0.31430944   -2.34175862    0.56494930
 H                  2.42857433   -1.30848250    0.46497882
 H                 -1.04072476    1.55474651    3.00263361
 H                  0.98676461    0.82419570    0.98433304
 H                 -2.89416213    3.16470411   -0.91610783
 H                 -1.76519817    0.64140831    0.11462974
 H                 -8.52411826    3.61644208   -0.46769729
 H                 -7.82004422    2.97819859   -1.97909843
 H                 -6.85281458    5.25297483   -1.73264634
 H                 -6.42546283    4.90723213   -0.04050211
 H                 -5.37945150    3.45099990   -2.52444952
 H                 -4.43308590    4.27081534   -1.25176808
 H                 -6.93061289    2.35678375    0.87159807
 H                 -7.29652864   -1.77748801   -0.79058455
 H                 -7.26034059    0.24830669    1.21575613
 H                -13.50306307   -0.65700060    0.03253465
 H                -12.15217018   -0.25554379    1.10468267
 H                -12.91443148   -1.70280797    2.78271516
 H                -12.97649387   -3.42943491    2.55152202
 H                -11.64507549   -1.79263814   -1.48552981
 H                 -9.81134054    0.24482005   -0.36303619
 H                -11.84934294   -0.00795849   -1.53804075
 H                 -7.66743379   -1.97933124    0.92586749
 H                 -2.84100662    1.59451979   -1.77833819
 H                  0.19194238    2.62848029    2.26241164
 H                  0.88894357   -2.31359269    1.88852861
 H                  2.54763392   -1.22904664   -2.58429320
 H                  6.50009106   -4.51629475   -0.32989644
 H                  6.79510208   -0.78040388    2.77341743
 H                  5.43508152    2.05807193   -0.76636356
 H                  8.21223574   -1.67593000   -3.68236667
 H                 10.86563302   -1.57515478    0.28428968
 H                 12.22366102    2.95451841    2.10503113
 H                 10.53647170    3.40741227    1.80907608

 1 2 1.0 57 1.0 102 1.0 103 1.0
 2 3 2.0 4 1.5
 3
 4 5 1.0 59 1.0
 5 6 1.0 58 1.0 101 1.0
 6 7 2.0 8 1.5
 7
 8 9 1.0 61 1.0
 9 10 1.0 60 1.0 100 1.0
 10 11 2.0 12 1.5
 11
 12 13 1.0 63 1.0
 13 14 1.0 62 1.0 97 1.0
 14 15 2.0 16 1.5
 15
 16 17 1.0 65 1.0
 17 18 1.0 64 1.0 98 1.0
 18 19 2.0 20 1.5
 19
 20 21 1.0 67 1.0
 21 22 1.0 66 1.0 99 1.0
 22 23 2.0 24 1.5
 23
 24 25 1.0 69 1.0
 25 26 1.0 68 1.0 96 1.0
 26 27 2.0 28 1.5
 27
 28 29 1.0 71 1.0
 29 30 1.0 70 1.0 95 1.0
 30 31 2.0 32 1.5
 31
 32 33 1.0 73 1.0
 33 34 1.0 72 1.0 94 1.0
 34 35 2.0 36 1.5
 35
 36 37 1.0 75 1.0
 37 38 1.0 74 1.0 93 1.0
 38 39 2.0 40 1.5
 39
 40 41 1.0 46 1.0
 41 42 1.0 44 1.0 82 1.0
 42 43 2.0 47 1.5
 43
 44 45 1.0 76 1.0 77 1.0
 45 46 1.0 78 1.0 79 1.0
 46 80 1.0 81 1.0
 47 48 1.0 84 1.0
 48 49 1.0 83 1.0 92 1.0
 49 50 2.0 51 1.5
 50
 51 52 1.0 90 1.0
 52 53 1.0 89 1.0 91 1.0
 53 54 1.0 85 1.0 86 1.0
 54 55 2.0 56 1.5
 55
 56 87 1.0 88 1.0
 57
 58
 59
 60
 61
 62
 63
 64
 65
 66
 67
 68
 69
 70
 71
 72
 73
 74
 75
 76
 77
 78
 79
 80
 81
 82
 83
 84
 85
 86
 87
 88
 89
 90
 91
 92
 93
 94
 95
 96
 97
 98
 99
 100
 101
 102
 103

