%chk=C:\Users\Antonio\Desktop\QM_calculations\Outputs\peptide_calculations\3jzq.chk
#p b3lyp geom=connectivity def2svp

aa

0 1
 C                  7.51162231    4.53032062    0.42520171
 C                  7.86371796    3.15392589   -0.13537968
 O                  8.27821933    3.03155426   -1.28698467
 N                  7.66225320    2.11831427    0.66086573
 C                  7.94906975    0.77388977    0.21137232
 C                  6.75866987    0.19306292   -0.56492310
 O                  5.64589732    0.74083354   -0.54703781
 N                  7.00814757   -0.92694418   -1.23811419
 C                  5.94512584   -1.59939357   -1.96939728
 C                  4.80886554   -1.99021884   -1.00449808
 O                  3.60526190   -1.81820218   -1.29962987
 N                  5.17003244   -2.54537262    0.13909145
 C                  4.15362644   -2.94797595    1.09052862
 C                  3.25606731   -1.76056612    1.54100375
 O                  2.03210066   -1.88200205    1.64118445
 N                  3.86632177   -0.61139482    1.77533701
 C                  3.12924397    0.56905913    2.21521208
 C                  2.06288386    0.95056018    1.18318573
 O                  0.89950335    1.16786314    1.52833848
 N                  2.47947797    1.05587151   -0.07567174
 C                  1.56203547    1.38877151   -1.16245653
 C                  0.48209738    0.33128906   -1.35426354
 O                 -0.72218460    0.64931309   -1.45076151
 N                  0.89464272   -0.92934769   -1.41382500
 C                 -0.06704912   -2.00618411   -1.65233589
 C                 -1.09386500   -2.21783668   -0.55899575
 O                 -2.30068418   -2.42682660   -0.84646732
 N                 -0.62845356   -2.17898325    0.68991972
 C                 -1.52986275   -2.43322491    1.80473853
 C                 -2.63704790   -1.38820448    1.89081797
 O                 -3.64307798   -1.62051678    2.53382473
 N                 -2.45608040   -0.24730841    1.24902660
 C                 -3.48685950    0.76422785    1.35233758
 C                 -4.38152730    0.91615890    0.12977150
 O                 -5.16804535    1.86164443    0.03004343
 N                 -4.27374258   -0.01560988   -0.80902541
 C                 -5.16351114    0.03819177   -1.98226989
 C                 -6.57817164   -0.15198833   -1.42337672
 O                 -6.76600972   -0.96516017   -0.55000244
 N                 -7.56355402    0.55843006   -1.94875424
 C                 -8.95738139    0.42626811   -1.45875139
 C                 -9.20673765    1.02068817   -0.07222422
 O                -10.14097748    0.60973871    0.64583541
 N                 -8.36491433    1.99120274    0.28250283
 C                 -8.45040884    2.73303395    1.53972694
 H                  8.07906167    4.74887634    1.34517682
 H                  8.83520860    0.80163467   -0.44231613
 H                  7.21233077    2.24648889    1.55819557
 H                  5.49806070   -0.94734389   -2.73356612
 H                  7.96908594   -1.22112746   -1.37547109
 H                  3.46836402   -3.68607188    0.64997371
 H                  6.15150602   -2.69454481    0.34177989
 H                  2.59940375    0.37262650    3.15673234
 H                  4.83920488   -0.50331905    1.51559792
 H                  1.03456045    2.33015870   -0.95368915
 H                  3.44991084    0.85852892   -0.30848378
 H                 -0.64222018   -1.81005284   -2.56893206
 H                  1.87949410   -1.16509634   -1.31957439
 H                 -2.03095424   -3.40734716    1.70672347
 H                  0.35678485   -2.00175677    0.88051990
 H                 -4.14099237    0.50731987    2.19685317
 H                 -1.60449028   -0.02641817    0.74157883
 H                 -5.03648218    0.98972835   -2.52405129
 H                 -3.64193349   -0.81019963   -0.70673826
 H                 -9.62829691    0.91563798   -2.18150290
 H                 -7.35500818    1.29094222   -2.61671058
 H                 -9.24118005    2.28155439    2.15409133
 H                 -7.48894178    2.08836418   -0.22732736
 H                 -8.69258041    3.79470431    1.35809990
 H                 -7.48706674    2.67562246    2.06999858
 H                 -9.22279521   -0.63750509   -1.39530543
 H                 -4.91757539   -0.80506165   -2.64223026
 H                 -3.04348414    1.75396445    1.54434471
 H                 -0.94926765   -2.41752914    2.73843081
 H                  0.50627696   -2.93708022   -1.78924308
 H                  3.84545367    1.39241659    2.35190473
 H                  2.15233006    1.49718101   -2.08447979
 H                  6.34957940   -2.50070771   -2.45276645
 H                  4.64094889   -3.39309631    1.97053808
 H                  6.43725375    4.58363113    0.66962091
 H                  7.74624501    5.27992641   -0.33902050
 H                  8.16964242    0.12390227    1.07488748

 1 2 1.0 46 1.0 80 1.0 81 1.0
 2 3 2.0 4 1.5
 3
 4 5 1.0 48 1.0
 5 6 1.0 47 1.0 82 1.0
 6 7 2.0 8 1.5
 7
 8 9 1.0 50 1.0
 9 10 1.0 49 1.0 78 1.0
 10 11 2.0 12 1.5
 11
 12 13 1.0 52 1.0
 13 14 1.0 51 1.0 79 1.0
 14 15 2.0 16 1.5
 15
 16 17 1.0 54 1.0
 17 18 1.0 53 1.0 76 1.0
 18 19 2.0 20 1.5
 19
 20 21 1.0 56 1.0
 21 22 1.0 55 1.0 77 1.0
 22 23 2.0 24 1.5
 23
 24 25 1.0 58 1.0
 25 26 1.0 57 1.0 75 1.0
 26 27 2.0 28 1.5
 27
 28 29 1.0 60 1.0
 29 30 1.0 59 1.0 74 1.0
 30 31 2.0 32 1.5
 31
 32 33 1.0 62 1.0
 33 34 1.0 61 1.0 73 1.0
 34 35 2.0 36 1.5
 35
 36 37 1.0 64 1.0
 37 38 1.0 63 1.0 72 1.0
 38 39 2.0 40 1.5
 39
 40 41 1.0 66 1.0
 41 42 1.0 65 1.0 71 1.0
 42 43 2.0 44 1.5
 43
 44 45 1.0 68 1.0
 45 67 1.0 69 1.0 70 1.0
 46
 47
 48
 49
 50
 51
 52
 53
 54
 55
 56
 57
 58
 59
 60
 61
 62
 63
 64
 65
 66
 67
 68
 69
 70
 71
 72
 73
 74
 75
 76
 77
 78
 79
 80
 81
 82

