%chk=C:\Users\Antonio\Desktop\QM_calculations\Outputs\peptide_calculations\4n5t.chk
#p b3lyp geom=connectivity def2svp

aa

0 1
 C                 10.49575649   -5.19596423   -0.44664848
 O                 11.08415206   -5.10304513   -1.50918211
 C                 10.94805851   -6.12862752    0.66251846
 N                  9.37389389   -4.45107981   -0.15976565
 C                  8.93786147   -3.39749895   -1.03480565
 C                  8.94688643   -2.04439001   -0.33299498
 O                  8.87428617   -1.92669572    0.88189818
 N                  8.98437668   -0.95004282   -1.14645267
 C                  8.85454981    0.35706378   -0.55490559
 C                  7.53998108    0.47850627    0.22483914
 O                  6.49036033    0.02612402   -0.22168933
 N                  7.58804852    1.18884378    1.38412595
 C                  6.42526180    1.22067916    2.25874256
 C                  5.16082474    1.76643370    1.58792036
 O                  4.06760159    1.28829982    1.86218758
 O                  2.22066877    2.27280716   -0.91090300
 C                  3.44083121    2.24507092   -0.81268098
 C                  4.21491753    3.35305977   -0.05794406
 C                  3.29110735    4.23916545    0.79265630
 N                  5.32859317    2.77477203    0.70117360
 C                  2.42912070    5.21055543   -0.02136065
 C                  1.57702707    6.12364272    0.86475390
 C                  0.74295119    7.15627878    0.09141539
 C                 -0.33839150    6.58978904   -0.84317782
 C                 -1.39241987    5.73032178   -0.13818983
 C                 -2.60930600    5.38233207   -1.00316413
 N                  4.19083718    1.28534288   -1.40551658
 C                  3.54047462    0.18308720   -2.08981202
 C                  2.69668145   -0.70609254   -1.16558085
 O                  1.58959739   -1.10020837   -1.50704922
 N                  3.25315683   -1.02078175    0.02888690
 C                  2.48152766   -1.75135622    1.01761847
 C                  1.19304725   -1.02167256    1.43661069
 O                  0.12772207   -1.61856473    1.52875617
 N                  1.32876939    0.30237104    1.68063667
 C                  0.16880012    1.10800945    2.00102471
 C                 -0.88480040    1.10589412    0.88404269
 O                 -2.07519253    0.97913468    1.14482109
 N                 -0.41057499    1.24677144   -0.37214735
 C                 -1.29870203    1.16410840   -1.51216077
 C                 -2.03597310   -0.17936632   -1.61952775
 O                 -3.20561407   -0.22017875   -1.98760251
 N                 -1.32591015   -1.27920255   -1.29483876
 C                 -1.94895862   -2.58749925   -1.31939648
 C                 -3.07871993   -2.74227640   -0.28696048
 O                 -4.16737815   -3.20231303   -0.60259431
 N                 -2.78514690   -2.34040002    0.97573318
 C                 -3.81852586   -2.39062517    1.99313209
 C                 -5.03721388   -1.50610021    1.66287299
 O                 -6.18079461   -1.88629541    1.86959764
 C                 -6.64736791    0.00341820   -0.42342226
 N                 -4.72926214   -0.30392204    1.12697544
 O                 -7.86416586    0.16261065   -0.39515473
 C                 -5.73464146    0.63412968    0.64655096
 C                 -4.96409436    1.84835765    0.11341138
 C                 -4.82679877    4.05479380   -1.09573308
 C                 -3.61371194    4.49444042   -0.26481238
 C                 -5.75573240    3.05943570   -0.37338194
 N                 -6.01674776   -0.70702690   -1.38737985
 C                 -6.75688771   -1.35219811   -2.44922239
 C                 -7.68305849   -2.50037211   -2.00783674
 O                 -8.64111988   -2.81238798   -2.69748538
 N                 -7.34233840   -3.10620746   -0.84117444
 C                 -8.18156817   -4.07969941   -0.18620746
 C                 -8.87045466   -3.58547824    1.09826156
 O                 -9.22306345   -4.39187443    1.94911921
 N                 -9.08664510   -2.24923592    1.16823259
 C                 -9.51584103   -1.61202585    2.39061994
 H                  9.59773841   -3.40328469   -1.91658418
 H                  9.01741581   -4.42846653    0.78986012
 H                  9.71267814    0.57788014    0.10273881
 H                  8.99652389   -1.05444634   -2.15331545
 H                  6.16426782    0.21453263    2.62322472
 H                  8.49842236    1.33629961    1.80726160
 H                  2.85448215    0.55621335   -2.86192410
 H                  5.16098217    1.15734399   -1.12861447
 H                  2.16374929   -2.72990791    0.63031768
 H                  4.15444358   -0.62856488    0.28239612
 H                 -0.34674642    0.74062349    2.90104426
 H                  2.25045007    0.73384971    1.64059432
 H                 -2.07780152    1.94023160   -1.47767478
 H                  0.58187658    1.41144606   -0.53136380
 H                 -2.40634065   -2.79685297   -2.29787798
 H                 -0.33046483   -1.20439058   -1.09436019
 H                 -3.75107872   -0.03658033    1.03001840
 H                 -7.41506884   -0.63936500   -2.96945877
 H                 -5.00001472   -0.76417478   -1.40091025
 H                 -8.96101006   -4.38734419   -0.90102221
 H                 -6.49034250   -2.82139944   -0.36663228
 H                -10.05199665   -2.34883310    3.00480913
 H                 -8.64233137   -1.64544869    0.48103363
 H                 10.12530521   -6.44669755    1.32072004
 H                 11.70672867   -5.61397137    1.27541720
 H                 11.42262562   -7.00846815    0.20803191
 H                  3.93402615    4.81081793    1.48394829
 H                  2.65426105    3.59073959    1.41398318
 H                  3.08539318    5.83386621   -0.65852955
 H                  1.78579019    4.63472400   -0.70222407
 H                  2.23841259    6.65999286    1.56980354
 H                  0.91509644    5.50158931    1.49339456
 H                  0.25543426    7.82539632    0.82322906
 H                  1.42684870    7.79669962   -0.49543998
 H                 -0.84085917    7.43923568   -1.34012534
 H                  0.12553127    6.00491191   -1.65841351
 H                 -1.73783293    6.25481153    0.77304119
 H                 -0.93117734    4.78844595    0.21323745
 H                 -3.09998474    6.31287730   -1.34500114
 H                 -4.21386173   -3.40998966    2.11586289
 H                 -4.28136906    2.15642530    0.91791835
 H                 -4.32274068    1.49007915   -0.70799853
 H                 -5.40085100    4.94494146   -1.40965102
 H                 -4.46520472    3.58084974   -2.02839572
 H                 -3.07114981    3.60374183    0.09349804
 H                 -6.25448206    3.55401990    0.48006720
 H                 -6.56156690    2.74571795   -1.05790170
 H                -10.18270374   -0.76342093    2.16860256
 H                 -8.64663359   -1.23918647    2.96286313
 H                 -7.60860870   -4.97469021    0.10068781
 H                 -1.16896580   -3.33697360   -1.11853854
 H                 -6.41977841    0.92003313    1.46159878
 H                 -3.38165425   -2.06288376    2.94917042
 H                 -6.03502765   -1.75147722   -3.17762207
 H                 -0.69919620    1.31579083   -2.42257685
 H                  0.50223469    2.14127831    2.18326536
 H                  4.31733751   -0.43011948   -2.57075906
 H                  3.11364805   -1.90968839    1.90440471
 H                  4.67924883    3.97876976   -0.83948213
 H                  6.65799062    1.84987405    3.13173020
 H                  8.83946355    1.11330560   -1.35497484
 H                  7.90284887   -3.56420608   -1.39356623
 H                  6.26571009    3.13127926    0.55435731
 H                 -1.86452704   -1.96215238    1.19349406
 H                 -2.27021172    4.86513694   -1.92133317
 H                 -3.96420325    5.01451460    0.64707944

 1 2 2.0 3 1.0 4 1.0
 2
 3 92 1.0 93 1.0 94 1.0
 4 5 1.0 70 1.0
 5 6 1.0 69 1.0 130 1.0
 6 7 2.0 8 1.5
 7
 8 9 1.0 72 1.0
 9 10 1.0 71 1.0 129 1.0
 10 11 2.0 12 1.5
 11
 12 13 1.0 74 1.0
 13 14 1.0 73 1.0 128 1.0
 14 15 2.0 20 1.5
 15
 16 17 2.0
 17 18 1.0 27 1.5
 18 19 1.0 20 1.0 127 1.0
 19 21 1.0 95 1.0 96 1.0
 20 131 1.0
 21 22 1.0 97 1.0 98 1.0
 22 23 1.0 99 1.0 100 1.0
 23 24 1.0 101 1.0 102 1.0
 24 25 1.0 103 1.0 104 1.0
 25 26 1.0 105 1.0 106 1.0
 26 57 1.0 107 1.0 133 1.0
 27 28 1.0 76 1.0
 28 29 1.0 75 1.0 125 1.0
 29 30 2.0 31 1.5
 30
 31 32 1.0 78 1.0
 32 33 1.0 77 1.0 126 1.0
 33 34 2.0 35 1.5
 34
 35 36 1.0 80 1.0
 36 37 1.0 79 1.0 124 1.0
 37 38 2.0 39 1.5
 38
 39 40 1.0 82 1.0
 40 41 1.0 81 1.0 123 1.0
 41 42 2.0 43 1.5
 42
 43 44 1.0 84 1.0
 44 45 1.0 83 1.0 119 1.0
 45 46 2.0 47 1.5
 46
 47 48 1.0 132 1.0
 48 49 1.0 108 1.0 121 1.0
 49 50 2.0 52 1.5
 50
 51 53 2.0 54 1.0 59 1.5
 52 54 1.0 85 1.0
 53
 54 55 1.0 120 1.0
 55 58 1.0 109 1.0 110 1.0
 56 57 1.0 58 1.0 111 1.0 112 1.0
 57 113 1.0 134 1.0
 58 114 1.0 115 1.0
 59 60 1.0 87 1.0
 60 61 1.0 86 1.0 122 1.0
 61 62 2.0 63 1.5
 62
 63 64 1.0 89 1.0
 64 65 1.0 88 1.0 118 1.0
 65 66 2.0 67 1.5
 66
 67 68 1.0 91 1.0
 68 90 1.0 116 1.0 117 1.0
 69
 70
 71
 72
 73
 74
 75
 76
 77
 78
 79
 80
 81
 82
 83
 84
 85
 86
 87
 88
 89
 90
 91
 92
 93
 94
 95
 96
 97
 98
 99
 100
 101
 102
 103
 104
 105
 106
 107
 108
 109
 110
 111
 112
 113
 114
 115
 116
 117
 118
 119
 120
 121
 122
 123
 124
 125
 126
 127
 128
 129
 130
 131
 132
 133
 134

