%chk=C:\Users\Antonio\Desktop\QM_calculations\Outputs\peptide_calculations\atsp_c1_backbone.chk
#p b3lyp geom=connectivity def2svp

aa

0 1
 H                 -0.74761994    5.29183165   -4.06488989
 C                 -0.40777160    5.98151767   -3.29263575
 H                 -0.35630496    7.00806788   -3.65635554
 H                  0.54367555    5.62289838   -2.90105089
 C                 -1.50236297    5.99057687   -2.31916979
 O                 -1.54634167    6.95275362   -1.49515035
 N                 -2.50332609    5.03672349   -2.34394550
 H                 -2.31103902    4.30370916   -3.01117770
 C                 -3.94187708    5.10643117   -1.75997097
 H                 -4.11089229    6.17583712   -1.62989811
 C                 -4.01610061    4.39474856   -0.39796030
 O                 -3.33608169    3.40461419   -0.10085019
 N                 -4.86661016    4.88618797    0.56812773
 H                 -5.36292609    5.74295489    0.36518416
 C                 -5.13570782    4.43525331    1.97831095
 H                 -4.23004179    3.99211292    2.39217301
 C                 -6.14810638    3.27806271    1.98999361
 O                 -6.41696858    2.82663338    3.11050683
 N                 -6.72318076    2.91292619    0.86097857
 H                 -6.60272747    3.46261407    0.02266395
 C                 -7.79162508    1.84342873    0.71268063
 H                 -8.36896920    1.81034358    1.63695133
 C                 -7.07499308    0.48112403    0.62580797
 O                 -6.69142578    0.12075938   -0.49984013
 O                 -6.16219461   -3.57152172    0.85630694
 C                 -6.72796097   -2.60388080    1.33144128
 C                 -6.00510242   -1.42633985    2.03136424
 C                 -4.55808534   -1.27384550    1.48592003
 N                 -6.68634838   -0.11151766    1.82065624
 C                 -3.68823569   -0.10097878    2.01195859
 C                 -2.20971656   -0.34789192    1.67820355
 C                 -1.31492912    0.89968643    1.90161810
 C                 -1.38271946    1.46539366    3.36619590
 C                 -0.85426159    0.48232472    4.45660824
 C                  0.63859878    0.31878479    4.43175003
 H                 -4.05518797   -2.23704094    1.63023204
 H                 -4.66388483   -1.26989496    0.39441280
 H                 -6.83945237    0.36851324    2.69955820
 H                 -3.85516565    0.06529859    3.08371435
 H                 -3.95773754    0.84016089    1.51854188
 H                 -1.82363581   -1.20987924    2.23604285
 H                 -2.15538336   -0.61031462    0.61438806
 H                 -0.26224515    0.71740417    1.65366686
 H                 -1.72069243    1.61386259    1.17444638
 H                 -2.32676749    1.96520992    3.61647219
 H                 -0.65896822    2.28262977    3.47733308
 H                 -1.33110777   -0.49174018    4.29287224
 H                 -1.22372556    0.83128890    5.42909912
 H                  1.00537827   -0.55243629    3.89276875
 N                 -8.07914316   -2.43262641    1.14084235
 H                 -8.38258282   -1.54818066    1.52143429
 C                 -9.08221002   -3.16521793    0.33818500
 H                 -9.05239733   -4.20788737    0.65354322
 C                 -8.72024923   -3.12009773   -1.15991342
 O                 -8.64945241   -4.20084024   -1.77221617
 N                 -8.44772972   -1.94204481   -1.70106931
 H                 -8.55852848   -1.18620667   -1.04067284
 C                 -8.22606806   -1.74084800   -3.16178806
 H                 -8.55407636   -2.66175509   -3.64446379
 C                 -6.78774371   -1.66188203   -3.55751248
 O                 -6.45687786   -2.15958568   -4.65904509
 N                 -5.84572698   -1.17440829   -2.70649015
 H                 -6.19745131   -0.99073192   -1.77772853
 C                 -4.45515024   -0.89819859   -3.02629303
 H                 -4.39933214   -0.84556270   -4.11295350
 C                 -3.43080469   -1.93340987   -2.50071135
 O                 -3.82087525   -2.84839589   -1.73263792
 N                 -2.18288329   -1.85626422   -2.84628186
 H                 -1.88883429   -1.12854874   -3.48311270
 C                 -1.12803350   -2.86686775   -2.50248289
 H                 -1.54979466   -3.79341556   -2.11246641
 C                 -0.17387799   -2.43831184   -1.38105280
 O                  0.18789992   -1.27723212   -1.23667538
 N                  0.33716397   -3.45324218   -0.60200288
 H                  0.06936131   -4.41800556   -0.73313071
 C                  1.15629132   -3.24645168    0.57403044
 H                  0.67090378   -2.47224275    1.16752572
 C                  2.60308801   -2.87371354    0.40408943
 O                  3.57633540   -3.48897526    0.94121955
 N                  2.94768185   -1.87991395   -0.36939599
 C                  4.35343542   -1.70586811   -0.98134476
 C                  5.26190314   -0.78526272   -0.22338405
 O                  6.37856010   -0.45579342   -0.67187418
 H                  4.90158269   -2.64954012   -0.87493108
 H                  2.19085017   -1.46636199   -0.89956740
 C                  7.07054165   -0.15046746    2.01563559
 N                  4.79974340   -0.41126099    1.01181890
 O                  8.07044254    0.53404151    2.26423149
 C                  5.58714320    0.45189647    1.94052883
 C                  4.94444910    0.41029667    3.34351961
 C                  3.02674784    0.80450496    4.92273258
 C                  1.55288385    1.05875768    5.02196371
 C                  3.52970012    1.04787593    3.50889599
 H                  3.84211677   -0.69678893    1.18148378
 H                  5.66777674    0.81374189    4.06310646
 H                  4.85901312   -0.63251954    3.67339415
 H                  3.19994057   -0.25312719    5.15591850
 H                  3.57604508    1.43946582    5.62807395
 H                  1.35148297    1.96534347    5.58780118
 H                  2.85878788    0.57875964    2.77795423
 H                  3.44252166    2.07699963    3.13943895
 N                  7.27455233   -1.51482281    1.99467359
 H                  6.46049008   -2.06658094    1.76386026
 C                  8.56503673   -2.12162276    2.25944717
 H                  9.17771079   -1.52135854    2.93268676
 C                  9.39901372   -2.35439538    0.93532116
 O                 10.30082934   -3.12800933    1.04805629
 N                  9.02106771   -1.78574896   -0.22380926
 H                  8.14516866   -1.29769863   -0.35259933
 C                  9.85766905   -1.87385438   -1.44937809
 H                 10.86447036   -2.04441934   -1.06557103
 C                  9.89504887   -0.54752435   -2.23672346
 O                 10.55360387   -0.42416348   -3.29906695
 N                  9.32074354    0.54053061   -1.66262677
 H                  9.06524914    0.57804784   -0.68592454
 C                  9.37387331    1.79932412   -2.34669213
 H                  8.80162981    1.64395115   -3.26091135
 C                 10.76085365    2.44325066   -2.66859655
 O                 11.79356766    2.23586546   -1.99291140
 N                 10.84467612    3.25991171   -3.71663842
 H                 10.13031419    3.49581516   -4.39102612
 H                 11.76338783    3.67548692   -3.77613824
 H                  8.74818524    2.48469704   -1.81407730
 H                  9.41741639   -2.64902093   -2.04115049
 H                  8.31913081   -3.00540732    2.81022416
 H                  4.33411528   -1.47049474   -2.02495689
 H                  5.68901659    1.45993913    1.59647657
 H                  1.06462559   -4.10748193    1.20261972
 H                 -0.53764520   -2.99640811   -3.38541047
 H                 -5.95832590   -1.64188333    3.07838531
 H                -10.07526314   -2.78598451    0.46036429
 H                 -8.88193992   -0.99112766   -3.55249467
 H                 -5.39882912    5.30516888    2.54303587
 H                 -4.67031896    4.77380342   -2.46964086
 H                 -8.44576780    2.01449921   -0.11661567
 H                 -4.24322252    0.07953041   -2.64677646

 1 2 1.0
 2 3 1.0 4 1.0 5 1.0
 3
 4
 5 6 2.0 7 1.0
 6
 7 8 1.0 9 1.0
 8
 9 10 1.0 11 1.0 134 1.0
 10
 11 12 2.0 13 1.5
 12
 13 14 1.0 15 1.0
 14
 15 16 1.0 17 1.0 133 1.0
 16
 17 18 2.0 19 1.5
 18
 19 20 1.0 21 1.0
 20
 21 22 1.0 23 1.0 135 1.0
 22
 23 24 2.0 29 1.0
 24
 25 26 2.0
 26 27 1.0 50 1.0
 27 28 1.0 29 1.0 130 1.0
 28 30 1.0 36 1.0 37 1.0
 29 38 1.0
 30 31 1.0 39 1.0 40 1.0
 31 32 1.0 41 1.0 42 1.0
 32 33 1.0 43 1.0 44 1.0
 33 34 1.0 45 1.0 46 1.0
 34 35 1.0 47 1.0 48 1.0
 35 49 1.0 92 2.0
 36
 37
 38
 39
 40
 41
 42
 43
 44
 45
 46
 47
 48
 49
 50 51 1.0 52 1.0
 51
 52 53 1.0 54 1.0 131 1.0
 53
 54 55 2.0 56 1.5
 55
 56 57 1.0 58 1.0
 57
 58 59 1.0 60 1.0 132 1.0
 59
 60 61 2.0 62 1.5
 61
 62 63 1.0 64 1.0
 63
 64 65 1.0 66 1.0 136 1.0
 65
 66 67 2.0 68 2.0
 67
 68 69 1.0 70 1.0
 69
 70 71 1.0 72 1.0 129 1.0
 71
 72 73 2.0 74 1.5
 73
 74 75 1.0 76 1.0
 75
 76 77 1.0 78 1.0 128 1.0
 77
 78 79 2.0 80 2.0
 79
 80 81 1.0 85 1.0
 81 82 1.0 84 1.0 126 1.0
 82 83 2.0 87 1.5
 83
 84
 85
 86 88 2.0 89 1.0 102 1.0
 87 89 1.0 94 1.0
 88
 89 90 1.0 127 1.0
 90 93 1.0 95 1.0 96 1.0
 91 92 1.0 93 1.0 97 1.0 98 1.0
 92 99 1.0
 93 100 1.0 101 1.0
 94
 95
 96
 97
 98
 99
 100
 101
 102 103 1.0 104 1.0
 103
 104 105 1.0 106 1.0 125 1.0
 105
 106 107 2.0 108 1.5
 107
 108 109 1.0 110 1.0
 109
 110 111 1.0 112 1.0 124 1.0
 111
 112 113 2.0 114 1.5
 113
 114 115 1.0 116 1.0
 115
 116 117 1.0 118 1.0 123 1.0
 117
 118 119 2.0 120 1.5
 119
 120 121 1.0 122 1.0
 121
 122
 123
 124
 125
 126
 127
 128
 129
 130
 131
 132
 133
 134
 135
 136

