%chk=C:\Users\Antonio\Desktop\QM_calculations\Outputs\peptide_calculations\atsp_c2_backbone.chk
#p b3lyp geom=connectivity def2svp

aa

0 1
 H                 10.02474005    2.89033222    2.88636165
 C                 10.70457009    2.80996689    2.03777771
 H                 11.75751523    2.73155761    2.31067828
 H                 10.76300036    3.76285864    1.51141627
 C                 10.15862390    1.80941641    1.09093781
 O                  8.96774892    1.50565412    1.14195281
 N                 11.02195240    1.24204288    0.20854027
 H                 11.93399632    1.66165365    0.09943569
 C                 10.60245587    0.29969555   -0.86127069
 H                  9.89877692    0.89791335   -1.43887656
 C                  9.92127182   -0.96920907   -0.34607396
 O                  8.99405877   -1.53867385   -0.96807727
 N                 10.31895556   -1.34620933    0.84642118
 H                 11.10535095   -0.84830188    1.23973486
 C                  9.86031764   -2.59417067    1.53253491
 H                  9.85299340   -3.38268040    0.78001717
 C                  8.46069679   -2.64292892    2.12594750
 O                  7.99969847   -3.54573750    2.79327233
 N                  7.80120382   -1.47265172    1.97037565
 H                  8.16047390   -0.89141974    1.22620123
 C                  6.52170282   -0.96045347    2.56347549
 H                  5.96710458   -1.75637511    3.06044703
 C                  5.54853945   -0.38165379    1.47710430
 O                  4.54728607   -1.02527866    1.18349758
 O                  3.17972317    0.06167825   -1.40281482
 C                  4.37297738    0.02395670   -1.30276643
 C                  5.30636106    1.12728798   -0.48554652
 C                  4.41172987    2.35627582    0.09538836
 N                  6.04671051    0.49186815    0.62961431
 C                  3.73941404    3.26161458   -0.94964250
 C                  2.82661037    4.27503644   -0.22480807
 C                  2.22826357    5.22184997   -1.25166131
 C                  1.50460413    6.44360313   -0.55957640
 C                  0.23785666    6.15173913    0.34384631
 C                 -1.00476174    5.75136891   -0.51069192
 H                  3.65895195    1.92046152    0.76250265
 H                  5.01566785    2.95263654    0.79005445
 H                  7.01637332    0.75285493    0.76035864
 H                  3.12817872    2.60105362   -1.57744245
 H                  4.46469350    3.73844840   -1.61979575
 H                  2.13219814    3.74674880    0.44027388
 H                  3.43339012    4.86968869    0.46978404
 H                  2.88583557    5.57482665   -2.05432917
 H                  1.49160188    4.65511979   -1.83539295
 H                  1.22726339    7.14017735   -1.35999108
 H                  2.17867383    7.00245072    0.09978664
 H                  0.05658456    7.10273377    0.85916348
 H                  0.42974909    5.38554249    1.10537256
 H                 -1.24534699    6.40300598   -1.34862574
 N                  5.03082189   -0.88405022   -2.02264858
 H                  6.03038217   -0.94266812   -1.89195688
 C                  4.35460559   -1.70460495   -2.99266700
 H                  3.73015969   -1.02257771   -3.57059030
 C                  3.43799846   -2.81130603   -2.31712688
 O                  2.80258396   -3.61280303   -2.98449200
 N                  3.48317279   -2.91261254   -1.01331650
 H                  4.23671818   -2.36932469   -0.61842184
 C                  2.67697398   -3.77760883   -0.11054343
 H                  2.27117059   -4.57236417   -0.73756873
 C                  1.47229940   -3.00261240    0.53199453
 O                  0.30736307   -3.38586685    0.34674444
 N                  1.80830521   -1.89795249    1.10750805
 H                  2.71834723   -1.50809715    0.90577190
 C                  0.84776069   -0.88584901    1.62395562
 H                  0.06776605   -1.39417919    2.19032915
 C                 -0.10334883   -0.24528384    0.55309741
 O                 -1.26870248   -0.05966408    0.89382074
 N                  0.31360814    0.19341891   -0.67176056
 H                  1.29946507    0.04995853   -0.83833303
 C                 -0.49550062    0.65286404   -1.75652296
 H                 -1.01292826    1.53989724   -1.38991157
 C                 -1.52321759   -0.34167799   -2.24846738
 O                 -2.43610756    0.07937311   -2.93213331
 N                 -1.50100277   -1.64027713   -1.95454045
 H                 -0.79950586   -1.97176182   -1.30807458
 C                 -2.50548148   -2.60453663   -2.30724065
 H                 -2.99104758   -2.39117337   -3.25875936
 C                 -3.72247480   -2.72564488   -1.38139055
 O                 -4.82192178   -2.48237973   -1.69212127
 N                 -3.34639716   -2.75086480   -0.08623194
 C                 -4.23054313   -2.61898004    1.07814113
 C                 -5.00998881   -1.28831379    0.99153810
 O                 -6.18747584   -1.21100382    1.28580960
 H                 -5.01587216   -3.38292964    1.03026120
 H                 -2.37137240   -2.76745893    0.18611432
 C                 -6.27546892    1.35211790   -0.01277212
 N                 -4.32369635   -0.07944859    0.63979833
 O                 -7.29652123    1.83110389    0.36667325
 C                 -4.87811114    1.28570913    0.70944011
 C                 -3.85976159    2.24202957   -0.01950555
 C                 -3.08328636    4.53446049   -1.10062425
 C                 -1.84215691    4.67118903   -0.31107735
 C                 -4.19030584    3.70053798   -0.23775549
 H                 -3.34889306   -0.19429862    0.38817724
 H                 -3.55198143    1.82420941   -0.98636534
 H                 -2.90892638    2.25410324    0.52698489
 H                 -2.91967896    3.90780191   -1.98519353
 H                 -3.39013146    5.54053274   -1.40916749
 H                 -1.61764028    3.92087669    0.44467383
 H                 -4.33335086    4.28989807    0.67596874
 H                 -5.16460277    3.89463535   -0.70191697
 N                 -6.25176442    0.69172702   -1.23448578
 H                 -5.33799946    0.37647093   -1.52760069
 C                 -7.28166104    0.48137392   -2.21245807
 H                 -7.93501819    1.34628385   -2.32549526
 C                 -8.23543095   -0.68939890   -1.94438300
 O                 -9.01473219   -1.03010495   -2.81639745
 N                 -8.21806600   -1.28684303   -0.72698527
 H                 -7.49967524   -1.00210407   -0.07767827
 C                 -9.10255212   -2.35708247   -0.24086478
 H                 -9.93234126   -2.55012671   -0.92026311
 C                 -9.88649170   -2.04080072    1.01444473
 O                -10.92751808   -2.59015356    1.27388407
 N                 -9.35349749   -1.06753437    1.76943619
 H                 -8.55323883   -0.54355002    1.44422925
 C                 -9.95740510   -0.54077368    2.95733563
 H                -10.82321518   -1.16103946    3.19078251
 C                -10.60371801    0.87962594    3.00626335
 O                -11.23862985    1.32771688    3.91432208
 N                -10.29551470    1.61523099    1.89899228
 H                 -9.77531198    1.25796221    1.11064636
 H                -10.71976843    2.53113639    1.86618655
 H                 11.39066512    0.02283229   -1.52983112
 H                 10.54584179   -2.93642780    2.27940627
 H                  5.99868990    1.61880153   -1.13669577
 H                  3.32488546   -4.20921032    0.62350769
 H                  5.01790679   -2.25190365   -3.62937402
 H                  1.32784885   -0.17856941    2.26751687
 H                  0.15698997    0.82968757   -2.58591408
 H                 -2.06780202   -3.57063274   -2.44864487
 H                 -3.62605187   -2.64936309    1.96050578
 H                 -9.22186460   -0.58915304    3.73292558
 H                 -8.49948892   -3.23213193   -0.11635234
 H                 -6.83454214    0.21063674   -3.14609945
 H                 -4.92479041    1.59241903    1.73347636
 H                  6.70026669   -0.28315013    3.37234834

 1 2 1.0
 2 3 1.0 4 1.0 5 1.0
 3
 4
 5 6 2.0 7 1.5
 6
 7 8 1.0 9 1.0
 8
 9 10 1.0 11 1.0 123 1.0
 10
 11 12 2.0 13 1.5
 12
 13 14 1.0 15 1.0
 14
 15 16 1.0 17 1.0 124 1.0
 16
 17 18 2.0 19 1.5
 18
 19 20 1.0 21 1.0
 20
 21 22 1.0 23 1.0 136 1.0
 22
 23 24 2.0 29 1.5
 24
 25 26 2.0
 26 27 1.0 50 1.5
 27 28 1.0 29 1.0 125 1.0
 28 30 1.0 36 1.0 37 1.0
 29 38 1.0
 30 31 1.0 39 1.0 40 1.0
 31 32 1.0 41 1.0 42 1.0
 32 33 1.0 43 1.0 44 1.0
 33 34 1.0 45 1.0 46 1.0
 34 35 1.0 47 1.0 48 1.0
 35 49 1.0 92 1.5
 36
 37
 38
 39
 40
 41
 42
 43
 44
 45
 46
 47
 48
 49
 50 51 1.0 52 1.0
 51
 52 53 1.0 54 1.0 127 1.0
 53
 54 55 2.0 56 1.5
 55
 56 57 1.0 58 1.0
 57
 58 59 1.0 60 1.0 126 1.0
 59
 60 61 2.0 62 2.0
 61
 62 63 1.0 64 1.0
 63
 64 65 1.0 66 1.0 128 1.0
 65
 66 67 2.0 68 1.5
 67
 68 69 1.0 70 1.0
 69
 70 71 1.0 72 1.0 129 1.0
 71
 72 73 2.0 74 1.5
 73
 74 75 1.0 76 1.0
 75
 76 77 1.0 78 1.0 130 1.0
 77
 78 79 2.0 80 1.5
 79
 80 81 1.0 85 1.0
 81 82 1.0 84 1.0 131 1.0
 82 83 2.0 87 1.0
 83
 84
 85
 86 88 2.0 89 1.0 102 1.0
 87 89 1.0 94 1.0
 88
 89 90 1.0 135 1.0
 90 93 1.0 95 1.0 96 1.0
 91 92 1.0 93 1.0 97 1.0 98 1.0
 92 99 1.0
 93 100 1.0 101 1.0
 94
 95
 96
 97
 98
 99
 100
 101
 102 103 1.0 104 1.0
 103
 104 105 1.0 106 1.0 134 1.0
 105
 106 107 2.0 108 1.5
 107
 108 109 1.0 110 1.0
 109
 110 111 1.0 112 1.0 133 1.0
 111
 112 113 2.0 114 1.5
 113
 114 115 1.0 116 1.0
 115
 116 117 1.0 118 1.0 132 1.0
 117
 118 119 2.0 120 1.5
 119
 120 121 1.0 122 1.0
 121
 122
 123
 124
 125
 126
 127
 128
 129
 130
 131
 132
 133
 134
 135
 136

