%chk=C:\Users\Antonio\Desktop\QM_calculations\Outputs\peptide_calculations\p53_c0_backbone.chk
# rb3lyp geom=connectivity def2svp

aa

0 1
 C                -10.97502729   -2.81693501   -3.54021996
 H                -10.67145466   -1.87787710   -4.00364548
 C                 -9.72321977   -3.34894950   -2.85688616
 O                 -9.60412648   -4.55794687   -2.67203606
 N                 -8.75032095   -2.53764897   -2.43723638
 H                 -8.68419178   -1.57293605   -2.73119084
 C                 -7.67790827   -3.02740460   -1.59603658
 H                 -7.47501129   -4.08204133   -1.78243273
 C                 -7.94452650   -2.86382664   -0.10640922
 O                 -8.62279722   -1.90916314    0.26829325
 N                 -7.38849695   -3.80981623    0.65340154
 H                 -6.61808250   -4.32244165    0.24908597
 C                 -7.64410078   -3.93210723    2.07451140
 H                 -8.71606037   -3.95388425    2.27034994
 C                 -6.96322757   -2.93620100    3.00320627
 O                 -7.11160691   -2.88992024    4.22157366
 N                 -6.10869325   -2.08609891    2.42823573
 H                 -5.88733756   -2.12634926    1.44341298
 C                 -5.43805439   -1.01447320    3.13540219
 H                 -6.14384671   -0.67382901    3.89298322
 C                 -5.14068033    0.16025499    2.21400486
 O                 -4.79100727   -0.01200014    1.04829977
 N                 -5.03893141    1.35930048    2.79074710
 H                 -5.26413692    1.41294830    3.77393055
 C                 -4.55494035    2.51328460    2.06068140
 H                 -5.03023539    2.50887774    1.07961333
 C                 -3.06319042    2.39564002    1.78188650
 O                 -2.54083296    3.18064013    0.99499773
 N                 -2.35753750    1.53143448    2.51527336
 H                 -2.95770307    1.08524177    3.19400724
 C                 -0.95111309    1.18310178    2.48832284
 H                 -0.48198292    2.13373587    2.74394381
 C                 -0.25361452    0.85728339    1.17535680
 O                  0.86697739    1.18420104    0.78973382
 N                 -1.02958645    0.15778298    0.34499226
 H                 -1.95696187   -0.10976243    0.64252813
 C                 -0.75676698   -0.04058935   -1.06413107
 H                  0.30725942   -0.14772298   -1.27676590
 C                 -1.22277436    1.04834404   -2.02066014
 O                 -0.45892300    1.46401487   -2.88854050
 N                 -2.37813845    1.65035682   -1.72643413
 H                 -2.74999773    1.39768995   -0.82209877
 C                 -2.96256010    2.66770657   -2.57631495
 H                 -2.90536668    2.41027364   -3.63416162
 C                 -2.33140374    4.05260754   -2.56146122
 O                 -2.51071082    4.92216288   -3.41113878
 N                 -1.59613452    4.35343267   -1.48863973
 H                 -1.63332895    3.72299816   -0.69990772
 C                 -0.77665694    5.51317025   -1.20087094
 H                 -1.16619850    6.45758458   -1.57944906
 C                  0.65636453    5.27921216   -1.65548150
 O                  1.57611673    6.05867436   -1.41331629
 N                  1.00466049    4.04352476   -2.02144886
 H                  0.28153500    3.38584693   -2.27481754
 C                  2.31424868    3.42513598   -2.05832340
 H                  2.29454823    2.35042807   -1.87563202
 C                  3.17667227    3.82620557   -0.86989989
 O                  4.37543167    4.02487795   -1.05732093
 N                  2.61828423    3.66534033    0.33090389
 H                  1.64798375    3.39429562    0.27119580
 C                  3.35330695    3.54269055    1.57420122
 H                  4.00111398    4.41783065    1.60271811
 C                  4.15910536    2.25806559    1.70239757
 O                  5.29347157    2.32939412    2.16880081
 N                  3.63067524    1.05154693    1.48099095
 H                  2.72045805    1.01452996    1.04433581
 C                  4.21131337   -0.22762842    1.83600701
 H                  4.52211258   -0.10537689    2.87325132
 C                  5.42864863   -0.41203172    0.94111715
 O                  5.25689756   -0.28614073   -0.26987396
 N                  6.61647449   -0.71134406    1.47190562
 C                  6.86446828   -0.87109880    2.89017751
 H                  6.10527429   -1.52407077    3.32240715
 H                  6.97124365    0.12743546    3.31582375
 C                  8.19852306   -1.60949548    2.95030034
 H                  8.03927585   -2.67911308    3.08749685
 H                  8.77889265   -1.25752258    3.80386848
 C                  8.86994448   -1.24410269    1.62932189
 H                  9.58131407   -2.00003805    1.29916831
 H                  9.30870592   -0.25060606    1.72094727
 C                  7.70860627   -1.17440338    0.64089781
 H                  8.01595368   -0.59071122   -0.22729188
 C                  7.43753739   -2.55629193    0.06306356
 O                  7.32147083   -3.48774885    0.85588511
 N                  7.42228042   -2.71087438   -1.26328029
 H                  7.51106318   -1.89069640   -1.84614563
 C                  6.75442179   -3.78929599   -1.96419490
 H                  5.84609386   -4.15279645   -1.48480241
 C                  7.71055332   -4.97110797   -2.05213615
 O                  7.46831625   -6.11374510   -1.67141171
 N                  8.84474194   -4.59011372   -2.64446634
 H                  9.13867953   -3.63593099   -2.49438187
 C                  9.93001637   -5.49396339   -2.97042469
 H                  9.47965298   -6.34751296   -3.47771493
 H                  6.45474729   -3.50689220   -2.95178970
 H                  3.50007803   -0.99847164    1.62424016
 H                  2.63506340    3.67215951    2.35667433
 H                 -1.23358609   -0.93817722   -1.39861532
 H                 -0.71559699    0.54574595    3.31488795
 H                 -0.70908329    5.63684130   -0.14019218
 H                  2.73405385    3.56726958   -3.03221345
 H                 -3.97443551    2.76959253   -2.24370766
 H                 -6.81131655   -2.46775142   -1.88012679
 H                 -4.60613385   -1.43721337    3.65894700
 H                -11.68941896   -2.54161800   -2.79272730
 H                -11.46293411   -3.50863123   -4.19474535
 H                 10.57430745   -5.05571077   -3.70372120
 H                 -7.32328797   -4.91265131    2.35825885
 H                 10.44230763   -5.89171487   -2.11939496
 H                 -4.96217981    3.36578090    2.56298237

 1 2 1.0 3 1.0 105 1.0 106 1.0
 2
 3 4 2.0 5 1.5
 4
 5 6 1.0 7 1.0
 6
 7 8 1.0 9 1.0 103 1.0
 8
 9 10 2.0 11 1.5
 10
 11 12 1.0 13 1.0
 12
 13 14 1.0 15 1.0 108 1.0
 14
 15 16 2.0 17 1.5
 16
 17 18 1.0 19 1.0
 18
 19 20 1.0 21 1.0 104 1.0
 20
 21 22 2.0 23 1.5
 22
 23 24 1.0 25 1.0
 24
 25 26 1.0 27 1.0 110 1.0
 26
 27 28 2.0 29 1.5
 28
 29 30 1.0 31 1.0
 30
 31 32 1.0 33 1.0 99 1.0
 32
 33 34 2.0 35 1.5
 34
 35 36 1.0 37 1.0
 36
 37 38 1.0 39 1.0 98 1.0
 38
 39 40 2.0 41 1.5
 40
 41 42 1.0 43 1.0
 42
 43 44 1.0 45 1.0 102 1.0
 44
 45 46 2.0 47 1.5
 46
 47 48 1.0 49 1.0
 48
 49 50 1.0 51 1.0 100 1.0
 50
 51 52 2.0 53 1.5
 52
 53 54 1.0 55 1.0
 54
 55 56 1.0 57 1.0 101 1.0
 56
 57 58 2.0 59 1.5
 58
 59 60 1.0 61 1.0
 60
 61 62 1.0 63 1.0 97 1.0
 62
 63 64 2.0 65 1.5
 64
 65 66 1.0 67 1.0
 66
 67 68 1.0 69 1.0 96 1.0
 68
 69 70 2.0 71 1.5
 70
 71 72 1.0 81 1.0
 72 73 1.0 74 1.0 75 1.0
 73
 74
 75 76 1.0 77 1.0 78 1.0
 76
 77
 78 79 1.0 80 1.0 81 1.0
 79
 80
 81 82 1.0 83 1.0
 82
 83 84 2.0 85 1.5
 84
 85 86 1.0 87 1.0
 86
 87 88 1.0 89 1.0 95 1.0
 88
 89 90 2.0 91 1.5
 90
 91 92 1.0 93 1.0
 92
 93 94 1.0 107 1.0 109 1.0
 94
 95
 96
 97
 98
 99
 100
 101
 102
 103
 104
 105
 106
 107
 108
 109
 110

