%chk=C:\Users\Antonio\Desktop\QM_calculations\Outputs\peptide_calculations\pdiq_c1_backbone.chk
#p b3lyp geom=connectivity def2svp

AA

0 1
 C                 10.34765882   -3.69538954    1.07943880
 H                  9.65678226   -3.92446434    1.89178951
 C                  9.47269742   -3.34424669   -0.11487102
 O                  9.82369984   -3.62262912   -1.25960984
 N                  8.32933896   -2.70650831    0.14453361
 H                  8.25450822   -2.50771562    1.13202190
 C                  7.39159735   -2.12811771   -0.79712004
 H                  7.89656034   -1.84284561   -1.71994265
 C                  6.95453763   -0.74591019   -0.33185585
 O                  7.00572384   -0.53678747    0.87801733
 N                  6.61590748    0.20451220   -1.20607803
 H                  6.46566633   -0.00659911   -2.18186536
 C                  5.88725729    1.40111212   -0.83535422
 H                  6.44427127    1.82481619    0.00061089
 C                  4.48274414    1.13936655   -0.31135155
 O                  3.43058244    1.34714371   -0.91108299
 N                  4.42560116    0.85342361    0.99241446
 H                  5.32551452    0.64279165    1.39797510
 C                  3.25239394    0.45552299    1.74393727
 H                  2.83495784   -0.42618334    1.25684039
 C                  2.22947395    1.57928425    1.82364931
 O                  1.01730793    1.37404185    1.81093969
 N                  2.72833548    2.81593851    1.75310203
 H                  3.72390583    2.94575499    1.64105885
 C                  1.94367722    4.02428985    1.60163903
 H                  1.51290816    4.22382169    2.58224109
 C                  0.87322043    4.00273119    0.51897234
 O                 -0.16491909    4.64854448    0.64020756
 N                  1.22801356    3.28783299   -0.55082201
 H                  2.07311958    2.73322556   -0.55393618
 C                  0.44327367    3.12225244   -1.75692523
 H                 -0.43145006    3.77130775   -1.70968176
 C                 -0.21710815    1.75177529   -1.80569959
 O                 -1.41042215    1.71469852   -2.09807679
 N                  0.54494964    0.72460900   -1.42474969
 H                  1.45604403    0.89514442   -1.02209602
 C                  0.02082491   -0.62176601   -1.53150766
 H                 -0.39156919   -0.75921841   -2.53129927
 C                 -1.17468182   -0.86074266   -0.62130303
 O                 -2.29834242   -1.05992475   -1.07895660
 N                 -0.97189447   -0.42059984    0.62343876
 H                 -0.03219218   -0.12356942    0.84295145
 C                 -2.02258388   -0.59620015    1.60492024
 H                 -2.24539901   -1.65799595    1.70360879
 C                 -3.32949436    0.16737428    1.44804841
 O                 -4.26300579   -0.27151443    2.11691578
 N                 -3.42926648    1.23418951    0.65185541
 H                 -2.55346126    1.37569421    0.17003290
 C                 -4.59236239    2.02273500    0.29826593
 H                 -5.21785658    2.23195641    1.16607509
 C                 -5.44358995    1.30252950   -0.73799722
 O                 -6.66891310    1.30494931   -0.63996248
 N                 -4.88151967    0.55869794   -1.69354161
 H                 -3.87400160    0.56914681   -1.75895187
 C                 -5.62378565   -0.35596920   -2.53685639
 H                 -6.47990665    0.27571422   -2.77224373
 C                 -6.15380456   -1.54122736   -1.74282255
 O                 -7.20164732   -2.05520073   -2.12803201
 N                 -5.40682917   -1.95479534   -0.71653566
 H                 -4.47554151   -1.58889923   -0.57398862
 C                 -5.61740182   -3.26914361   -0.14272873
 H                 -6.09198665   -3.93402557   -0.86396069
 C                 -6.67669873   -3.08648327    0.93438359
 O                 -7.57365051   -3.91434408    1.07807554
 N                 -6.71714893   -2.00112500    1.71072097
 H                 -5.97849554   -1.31366007    1.66326117
 C                 -7.70777530   -1.65579718    2.71054382
 H                 -7.75889859   -2.45679665    3.44863705
 H                 10.98638428   -4.54190828    0.93683448
 H                 10.92157880   -2.84817937    1.39209033
 H                  6.54611170   -2.73659655   -1.04167598
 H                  5.93649908    2.10431260   -1.64032906
 H                  3.61359664    0.11458939    2.69166985
 H                  2.66294825    4.77970381    1.36310369
 H                  1.09743989    3.32845956   -2.57817144
 H                  0.80748280   -1.31721703   -1.32555281
 H                 -4.36698457    2.96063074   -0.16482865
 H                 -1.67965108   -0.26938854    2.56434268
 H                 -7.48003736   -0.75072642    3.23388167
 H                 -8.69816640   -1.54837863    2.32004812
 H                 -4.67184717   -3.62751014    0.20712847
 H                 -5.05897781   -0.60811624   -3.40996242

 1 2 1.0 3 1.0 69 1.0 70 1.0
 2
 3 4 2.0 5 1.5
 4
 5 6 1.0 7 1.0
 6
 7 8 1.0 9 1.0 71 1.0
 8
 9 10 2.0 11 1.5
 10
 11 12 1.0 13 1.0
 12
 13 14 1.0 15 1.0 72 1.0
 14
 15 16 2.0 17 1.5
 16
 17 18 1.0 19 1.0
 18
 19 20 1.0 21 1.0 73 1.0
 20
 21 22 2.0 23 1.5
 22
 23 24 1.0 25 1.0
 24
 25 26 1.0 27 1.0 74 1.0
 26
 27 28 2.0 29 1.5
 28
 29 30 1.0 31 1.0
 30
 31 32 1.0 33 1.0 75 1.0
 32
 33 34 2.0 35 1.5
 34
 35 36 1.0 37 1.0
 36
 37 38 1.0 39 1.0 76 1.0
 38
 39 40 2.0 41 1.5
 40
 41 42 1.0 43 1.0
 42
 43 44 1.0 45 1.0 78 1.0
 44
 45 46 2.0 47 1.5
 46
 47 48 1.0 49 1.0
 48
 49 50 1.0 51 1.0 77 1.0
 50
 51 52 2.0 53 1.5
 52
 53 54 1.0 55 1.0
 54
 55 56 1.0 57 1.0 82 1.0
 56
 57 58 2.0 59 1.5
 58
 59 60 1.0 61 1.0
 60
 61 62 1.0 63 1.0 81 1.0
 62
 63 64 2.0 65 1.5
 64
 65 66 1.0 67 1.0
 66
 67 68 1.0 79 1.0 80 1.0
 68
 69
 70
 71
 72
 73
 74
 75
 76
 77
 78
 79
 80
 81
 82

