%chk=C:\Users\Antonio\Desktop\QM_calculations\Outputs\peptide_calculations\pdiq_c2_backbone.chk
#p b3lyp geom=connectivity def2svp

AA

0 1
 C                 11.22732821    4.52497149   -0.78693026
 H                 10.46387705    5.25946266   -0.52826371
 C                 10.70569581    3.17332844   -0.32070895
 O                 11.43800822    2.21259157   -0.09644657
 N                  9.43129967    3.05714613    0.05841981
 H                  8.79956211    3.83550332   -0.06090749
 C                  8.74042888    1.92745345    0.64710108
 H                  9.47880190    1.21258197    1.01005198
 C                  7.92910019    1.19124664   -0.40903667
 O                  7.12562159    1.80468464   -1.10789463
 N                  7.95547978   -0.14293947   -0.44590205
 H                  8.64499785   -0.62106886    0.11672962
 C                  7.12082237   -1.04372944   -1.21504644
 H                  6.48011303   -0.45334515   -1.86953425
 C                  6.05302503   -1.78585861   -0.42386835
 O                  5.04043492   -2.13337614   -1.02646050
 N                  6.30869072   -1.89649495    0.88185028
 H                  7.26933819   -1.70675087    1.12887451
 C                  5.49051861   -2.66313230    1.79990864
 H                  5.55383498   -3.71189459    1.50732866
 C                  4.01173032   -2.30946470    1.87021542
 O                  3.30849251   -3.09388896    2.50288325
 N                  3.51454510   -1.21377700    1.29158526
 H                  4.13706353   -0.79079658    0.61762856
 C                  2.25867799   -0.52492684    1.51189154
 H                  1.92394132   -0.91612523    2.47263319
 C                  1.22429843   -0.75942015    0.42032822
 O                  0.08765134   -0.37924615    0.69022922
 N                  1.47910070   -1.55378161   -0.62224081
 H                  2.40980012   -1.92960649   -0.73110560
 C                  0.58678169   -1.69868672   -1.75456890
 H                  0.44656537   -0.68205297   -2.12071441
 C                 -0.81877456   -2.21765292   -1.48569088
 O                 -1.75433930   -1.55068814   -1.92343747
 N                 -0.89935164   -3.26110125   -0.65677507
 H                 -0.09559405   -3.80770079   -0.38231384
 C                 -2.17306657   -3.77688114   -0.19655774
 H                 -2.60519571   -4.24329168   -1.08240534
 C                 -3.11591635   -2.74061085    0.39863454
 O                 -4.33234304   -2.77517155    0.22374294
 N                 -2.52961179   -1.70824540    1.00802035
 H                 -1.52175771   -1.65718003    1.03341252
 C                 -3.33788259   -0.63265870    1.54702792
 H                 -4.22092891   -1.10978249    1.97247759
 C                 -3.86564523    0.43323592    0.59761287
 O                 -4.76202136    1.17449540    0.99416764
 N                 -3.46463942    0.35223942   -0.67309890
 H                 -2.82457425   -0.37509299   -0.96021984
 C                 -3.83606515    1.35035276   -1.65533884
 H                 -3.71993760    2.32300474   -1.17827818
 C                 -5.33342154    1.24924044   -1.90964340
 O                 -5.98858076    2.27186289   -2.09871260
 N                 -5.89915055    0.04073865   -1.95179316
 H                 -5.33251808   -0.79550077   -1.94725688
 C                 -7.30124975   -0.23848148   -2.18527254
 H                 -7.57773433    0.21986030   -3.13463519
 C                 -8.21773405    0.30052809   -1.09637409
 O                 -9.41148691    0.52249264   -1.28719401
 N                 -7.56996172    0.45148877    0.06041344
 H                 -6.59184500    0.20253607    0.02017118
 C                 -8.00931436    0.79765361    1.39697573
 H                 -9.08934571    0.65235421    1.39864647
 C                 -7.81566465    2.23264615    1.86692452
 O                 -8.41706443    2.68481007    2.83880342
 N                 -7.01867280    2.97560918    1.09657171
 H                 -6.55326946    2.53954428    0.31374259
 C                 -6.48836608    4.28475389    1.41956002
 H                 -6.77991284    4.55640422    2.43414710
 H                 12.16734862    4.71807907   -0.31367421
 H                 11.29199991    4.45712381   -1.85281694
 H                  8.14598116    2.26048257    1.47210029
 H                  7.70167632   -1.77834452   -1.73258827
 H                  2.41408190    0.51118741    1.72918643
 H                  5.98205876   -2.62887778    2.74970603
 H                  0.99456632   -2.30955371   -2.53267773
 H                 -2.80412038   -0.10217199    2.30767366
 H                 -5.42173075    4.22667068    1.35779033
 H                 -6.85843169    5.10588996    0.84190338
 H                 -7.43959748   -1.28884633   -2.33525171
 H                 -2.02374632   -4.52992803    0.54877708
 H                 -3.22862620    1.28604396   -2.53385035
 H                 -7.65765983    0.01303284    2.03385052

 1 2 1.0 3 1.0 69 1.0 70 1.0
 2
 3 4 2.0 5 1.5
 4
 5 6 1.0 7 1.0
 6
 7 8 1.0 9 1.0 71 1.0
 8
 9 10 2.0 11 1.5
 10
 11 12 1.0 13 1.0
 12
 13 14 1.0 15 1.0 72 1.0
 14
 15 16 2.0 17 1.5
 16
 17 18 1.0 19 1.0
 18
 19 20 1.0 21 1.0 74 1.0
 20
 21 22 2.0 23 1.5
 22
 23 24 1.0 25 1.0
 24
 25 26 1.0 27 1.0 73 1.0
 26
 27 28 2.0 29 1.5
 28
 29 30 1.0 31 1.0
 30
 31 32 1.0 33 1.0 75 1.0
 32
 33 34 2.0 35 1.5
 34
 35 36 1.0 37 1.0
 36
 37 38 1.0 39 1.0 80 1.0
 38
 39 40 2.0 41 1.5
 40
 41 42 1.0 43 1.0
 42
 43 44 1.0 45 1.0 76 1.0
 44
 45 46 2.0 47 1.5
 46
 47 48 1.0 49 1.0
 48
 49 50 1.0 51 1.0 81 1.0
 50
 51 52 2.0 53 1.5
 52
 53 54 1.0 55 1.0
 54
 55 56 1.0 57 1.0 79 1.0
 56
 57 58 2.0 59 1.5
 58
 59 60 1.0 61 1.0
 60
 61 62 1.0 63 1.0 82 1.0
 62
 63 64 2.0 65 1.5
 64
 65 66 1.0 67 1.0
 66
 67 68 1.0 77 1.0 78 1.0
 68
 69
 70
 71
 72
 73
 74
 75
 76
 77
 78
 79
 80
 81
 82

