%mem

#P

AA

0 1
C     0.1309287    1.3665743    0.6793562 
C     0.1309287    1.3665743   -0.6793562 
H    -0.0066758    2.1760566    1.3762237 
H    -0.0066758    2.1760566   -1.3762237 
N     0.3457501    0.0656791   -1.0918456 
N     0.3457501    0.0656791    1.0918456 
C     0.4889785   -0.7737093    0.0000000 
O     0.6927668   -1.9844477    0.0000000 
C     0.4161111   -0.4146668   -2.4511265 
H     0.5775948   -1.4902807   -2.4017025 
H    -0.5161295   -0.2124458   -2.9806069 
H     1.2452018    0.0516389   -2.9851712 
C     0.4161111   -0.4146668    2.4511265 
H    -0.5161295   -0.2124458    2.9806069 
H     0.5775948   -1.4902807    2.4017025 
H     1.2452018    0.0516389    2.9851712 
C    -2.9973378    0.3638878    0.0000000 
O    -2.5699698   -0.6908423    0.0000000 