%mem

#P

AA

0 1
C     1.7108645    0.5487520    0.6795843 
C     1.7108645    0.5487520   -0.6795843 
H     2.4599884    0.8790557    1.3790858 
H     2.4599884    0.8790557   -1.3790858 
N     0.5098689    0.0061576   -1.0886556 
N     0.5098689    0.0061576    1.0886556 
C    -0.2500275   -0.3460216    0.0000000 
O    -1.3699747   -0.8821010    0.0000000 
C     0.0812211   -0.2156824   -2.4493631 
H     0.5021794   -1.1409991   -2.8457734 
H    -1.0059142   -0.2838996   -2.4512358 
H     0.3910910    0.6237922   -3.0712895 
C     0.0812211   -0.2156824    2.4493631 
H    -1.0059142   -0.2838996    2.4512358 
H     0.5021794   -1.1409991    2.8457734 
H     0.3910910    0.6237922    3.0712895 
C    -0.2068981   -4.1675477    0.0000000 
N    -0.4096566   -3.4403134   -1.1546241 
H    -1.0069508   -2.6244943   -1.0882674 
H    -0.5000106   -4.0166724   -1.9759019 
N    -0.4096566   -3.4403134    1.1546241 
H    -0.5000106   -4.0166724    1.9759019 
H    -1.0069508   -2.6244943    1.0882674 
O     0.1855968   -5.3240134    0.0000000 
O    -0.8949675    2.6363639    0.0000000 
C    -0.4497521    3.3003296   -1.1606241 
H     0.6463032    3.3228424   -1.2081726 
H    -0.8372184    2.7517033   -2.0177054 
H    -0.8238782    4.3310882   -1.1982897 
C    -0.4497521    3.3003296    1.1606241 
H    -0.8238782    4.3310882    1.1982897 
H    -0.8372184    2.7517033    2.0177054 
H     0.6463032    3.3228424    1.2081726 