%mem

#P

AA

0 1

C     1.3318859    0.7464790    0.6801348
C     1.3318859    0.7464790   -0.6801348
H     2.0759917    1.0890951    1.3796943
H     2.0759917    1.0890951   -1.3796943
N     0.1589103    0.1479561   -1.0896068
N     0.1589103    0.1479561    1.0896068
C    -0.5895858   -0.2354394    0.0000000
O    -1.6799727   -0.8214553    0.0000000
C    -0.3122966    0.0128832   -2.4475374
H    -1.3456225   -0.3270337   -2.4016014
H    -0.2800988    0.9788397   -2.9524685
H     0.2884226   -0.7108400   -3.0003900
C    -0.3122966    0.0128832    2.4475374
H    -0.2800988    0.9788397    2.9524685
H    -1.3456225   -0.3270337    2.4016014
H     0.2884226   -0.7108400    3.0003900
C     0.0440696   -3.8000550    0.0000000
N    -0.5812432   -3.3795456   -1.1494586
H    -1.1900221   -2.5734418   -1.1017082
H    -0.0624400   -3.5446111   -1.9949616
N    -0.5812432   -3.3795456    1.1494586
H    -0.0624400   -3.5446111    1.9949616
H    -1.1900221   -2.5734418    1.1017082
O     1.0219679   -4.5349246    0.0000000
N    -1.4292519    2.6786948    0.0000000
C    -0.5435900    3.4434362    0.0000000
C     0.5445219    4.4118657    0.0000000
H     0.4818848    5.0434740    0.8858254
H     1.5010967    3.8913679    0.0000000
H     0.4818848    5.0434740   -0.8858254
