%mem

#P

AA

0 1
C     0.2122195    1.3535283    0.6796552 
C     0.2122195    1.3535283   -0.6796552 
H    -0.0953857    2.1153110    1.3765082 
H    -0.0953857    2.1153110   -1.3765082 
N     0.7655628    0.1576151   -1.0921030 
N     0.7655628    0.1576151    1.0921030 
C     1.0970011   -0.6254057    0.0000000 
O     1.5814372   -1.7526609    0.0000000 
O    -1.9847532   -1.1363832    0.0000000 
C    -2.8985759   -0.3407653    0.0000000 
H    -2.7144287    0.7462083    0.0000000 
H    -3.9523780   -0.6687889    0.0000000 
C     0.8639360   -0.3320288    2.4447927 
H    -0.1244586   -0.5516707    2.8536081 
H     1.4460117   -1.2514600    2.4125195 
H     1.3679631    0.3976031    3.0793953 
C     0.8639360   -0.3320288   -2.4447927 
H     1.4460117   -1.2514600   -2.4125195 
H    -0.1244586   -0.5516707   -2.8536081 
H     1.3679631    0.3976031   -3.0793953 