%mem

#P

AA

0 1
C     1.5233230    1.5118587    0.6794593 
C     1.5233230    1.5118587   -0.6794593 
H     2.2564799    1.8761429    1.3787766 
H     2.2564799    1.8761429   -1.3787766 
N     0.3358455    0.9392989   -1.0889061 
N     0.3358455    0.9392989    1.0889061 
C    -0.4106737    0.5562025    0.0000000 
O    -1.5146489   -0.0127438    0.0000000 
C    -0.0823411    0.7064594   -2.4525881 
H    -1.1563651    0.5274471   -2.4446549 
H     0.1309145    1.5875262   -3.0573318 
H     0.4270904   -0.1623039   -2.8711023 
C    -0.0823411    0.7064594    2.4525881 
H     0.1309145    1.5875262    3.0573318 
H    -1.1563651    0.5274471    2.4446549 
H     0.4270904   -0.1623039    2.8711023 
C    -0.0938403   -3.2089197    0.0000000 
N    -0.3684900   -2.5060378   -1.1552865 
H    -1.0453913   -1.7553889   -1.0922251 
H    -0.3994154   -3.0892194   -1.9762749 
N    -0.3684900   -2.5060378    1.1552865 
H    -0.3994154   -3.0892194    1.9762749 
H    -1.0453913   -1.7553889    1.0922251 
O     0.4139309   -4.3190088    0.0000000 
O    -1.2617696    3.4989944    0.0000000 
C    -0.3762990    4.2139087    0.0000000 