%chk=C:\Users\Antonio\Desktop\QM_calculations\Outputs\Compounds_and_complexes_1_to_12\OCH32.chk
# hf/3-21g geom=connectivity

Title Card Required

0 1
 O                 -1.08559497    1.37787059    0.00000000
 C                 -1.56293878    2.72584793    0.00000000
 H                 -2.63293865    2.72531013   -0.00000013
 H                 -1.20652526    3.23042961    0.87365137
 H                 -1.20652562    3.23043002   -0.87365128
 C                  0.34440264    1.37786975   -0.00261381
 H                  0.70107002    0.36906449   -0.00204712
 H                  0.69947068    1.88121693   -0.87752426
 H                  0.70266497    1.88332722    0.86977420

 1 2 1.0 6 1.0
 2 3 1.0 4 1.0 5 1.0
 3
 4
 5
 6 7 1.0 8 1.0 9 1.0
 7
 8
 9

